&nhyd_model
    config_dt = 3.0
    config_start_time = '2026-06-22_12:00:00'
    config_run_duration = '1_00:00:00'
    config_split_dynamics_transport = false
    config_number_of_sub_steps = 6
    config_dynamics_split_steps = 1
    config_h_mom_eddy_visc2  = 500.0
    config_h_mom_eddy_visc4  = 0.0
    config_v_mom_eddy_visc2  = 500.0
    config_h_theta_eddy_visc2 = 500.0
    config_h_theta_eddy_visc4 = 0.0
    config_v_theta_eddy_visc2 = 500.0
    config_horiz_mixing = '2d_fixed'
    config_len_disp = 500.0
    config_theta_adv_order  = 3
    config_w_adv_order      = 3
    config_u_vadv_order     = 3
    config_w_vadv_order     = 3
    config_theta_vadv_order = 3
    config_coef_3rd_order = 0.25
    config_epssm = 0.1
    config_smdiv = 0.1
    config_mix_full = false
    config_monotonic = true
    config_h_ScaleWithMesh = false
/

&damping
    config_zd = 20000.0
    config_xnutr = 0.0
/

&limited_area
    config_apply_lbcs = false
/

&io
    config_pio_num_iotasks = 0
    config_pio_stride = 1
/

&decomposition
    config_block_decomp_file_prefix = 'chem_box.graph.info.part.'
/

&restart
    config_do_restart = false
/

&printout
    config_print_global_minmax_vel = true
    config_print_global_minmax_sca = true
/

&physics
    config_o3climatology = false
    config_sst_update = false
    config_sstdiurn_update = false
    config_deepsoiltemp_update = false
    config_radtlw_interval = '00:30:00'
    config_radtsw_interval = '00:30:00'
    config_bucket_update = 'none'
    config_physics_suite = 'none'
    config_microp_scheme = 'mp_kessler'
/

&musica
    config_micm_file = 'chapman_nox.yaml'
    config_tuvx_config_file = 'tuvx_chapman_nox.json'
    config_tuvx_top_extension = .true.
    config_tuvx_extension_file = 'tuvx_upper_atm.csv'
    config_chemistry_latitude = 40.015
    config_chemistry_longitude = -105.270
    config_chem_substeps = 1
    config_micm_relative_tolerance = 1.0e-15
/
