&nhyd_model
    config_start_time = '0000-01-01_00:00:00'
    config_init_case = 5
    config_theta_adv_order = 3
/

&dimensions
    config_nvertlevels = 60
/

&vertical_grid
    config_ztop = 50000.0
    config_specified_zeta_levels = 'supercell_zeta_levels.txt'
/

&decomposition
    config_block_decomp_file_prefix = 'supercell.graph.info.part.'
/
